TITLE Salton Sea brine charge balance
SOLUTION 1
    temp 25
    pH 8.0
    density 1.08
    units mg/kg
    Ca 505
    Mg 581
    Na 6249
    K 112
    Cl 9033
    S 4139 as SO4
    Alkalinity 232 as HCO3
END
