TITLE q4
SOLUTION 1
    temp 100
    pH 7 charge
    units mol/kgw
    Cu 0.5
    Fe(3) 0.25
EQUILIBRIUM_PHASES 1
    CO2(g) -1.0 3
SELECTED_OUTPUT
    -file q4.sel.txt
    -reset false
    -si true
END
