TITLE H2(aq) molality at 10C, pH 10, equil with quartz and fixed gas (H2+CH4)
SOLUTION 1
    temp 10
    pH   10 charge
    -water 1
EQUILIBRIUM_PHASES 1
    Quartz 0 0
GAS_PHASE 1
    -fixed_pressure true
    -pressure 1
    -temperature 10
    H2(g) 0.5
    CH4(g) 0.5
SELECTED_OUTPUT
    -file sel.txt
    -molalities H2
END
