TITLE Q1-Q5
SOLUTION 1 Gypsum+Anhydrite pure water pH 7, 100C
    temp 100
    pH 7 charge
    units mol/kgw
    -water 1
EQUILIBRIUM_PHASES 1
    Gypsum     0 1
    Anhydrite  0 1
SELECTED_OUTPUT 1
    -file q1_sel.txt
    -reset false
    -pH true
    -molalities Ca+2 CaSO4 CaHSO4+ CaOH+
END

SOLUTION 2 CO2 3 atm + Cu2 0.5m + Fe3 0.25m, 100C
    temp 100
    pH 7 charge
    units mol/kgw
    Cu 0.5
    Fe 0.25
    -water 1
GAS_PHASE 2
    -fixed_pressure true
    -pressure 1
    CO2(g) 3
SELECTED_OUTPUT 2
    -file q2_sel.txt
    -reset false
    -pH true
    -si Siderite Goethite Hematite Magnetite Fayalite
END

SELECTED_OUTPUT 3
    -file q2_cu_species.txt
    -reset false
    -molalities Cu+2 CuCO3 CuHCO3+ CuOH+ Cu(OH)2 Cu(OH)3- Cu(OH)4-2 CuSO4 CuCl+ CuCl2 CuCl3- CuCl4-2
END
