TITLE Q1: Gypsum + Anhydrite equilibrium with pure water, pH 7, 100 C
SOLUTION 1
    temp 100
    pH 7 charge
    units mol/kgw
    -water 1
EQUILIBRIUM_PHASES 1
    Gypsum      0 1
    Anhydrite   0 1
SELECTED_OUTPUT
    -file q1.sel.txt
    -reset false
    -molalities Ca
END
