TITLE q5 Cu species count
SOLUTION 1
    temp 100
    pH 7 charge
    units mol/kgw
    Cu 0.5
    Fe 0.25
GAS_PHASE 1
    -fixed_pressure
    -pressure 3
    CO2(g) 1
SELECTED_OUTPUT
    -file q5.sel
    -reset false
    -high_precision true
    -activities false
END
