SOLUTION 1 Pure water at 85C
    temp 85
    pH 7 charge
    units mol/kgw
    -water 1
    
SELECTED_OUTPUT
    -file selected.txt
    -reset false
    -pH true
END
