TITLE q5
SOLUTION 1
    temp 100
    pH 7 charge
    units mol/kgw
    Cu 0.5
    Fe(3) 0.25
EQUILIBRIUM_PHASES 1
    CO2(g)  -1.0 3.0
SELECTED_OUTPUT
    -file q5.sel
    -reset false
    -molalities Cu+2 CuCO3 CuHCO3+ CuOH+ Cu(OH)2 Cu(OH)3- Cu(OH)4-2 CuCO3(aq)
END
