TITLE Equilibrate pure water with fixed-pressure gas phase at 150C
SOLUTION 1 Pure water
    temp 150
    pH 7 charge
    pe 4
    units mol/kgw
    -water 1
GAS_PHASE 1
    -fixed_pressure
    -pressure 1
    -temperature 150
    CH4(g) 10
    CO2(g) 10
    NH3(g) 5
EQUILIBRIUM_PHASES 1
    N2(g) 0
SELECTED_OUTPUT
    -reset false
    -si N2(g)
END
