SOLUTION 1
    temp 150
    pH 7
    pe 4
    units kgw
    -water 1

GAS_PHASE 1
    -fixed_pressure
    -pressure 1
    -temperature 150
    CO2(g) 10
    NH3(g) 5
END
