TITLE Q3 CO2 3 atm with Cu2+ 0.5 m, Fe3+ 0.25 m, initial pH 7, 100C
SOLUTION 1
    temp 100
    pH 7 charge
    Cu 0.5
    Fe 0.25
EQUILIBRIUM_PHASES 1
    CO2(g) -0.52287874528 10  # log10(3 atm)
SELECTED_OUTPUT
    -file q3.sel
    -reset false
    -pH true
END
