TITLE Gypsum + Anhydrite in pure water, pH 7, 100C
SOLUTION 1 Pure water
    temp 100
    pH 7 charge
    units mol/kgw
    -water 1
EQUILIBRIUM_PHASES 1
    Gypsum     0 1
    Anhydrite  0 1
SELECTED_OUTPUT
    -file gypsum_anhydrite_100C.sel
    -reset false
    -high_precision true
END
USER_PUNCH
    -headings Ca+2 CaSO4 CaHSO4+ CaOH+
10  PUNCH MOL("Ca+2"), MOL("CaSO4"), MOL("CaHSO4+"), MOL("CaOH+")
END
