SOLUTION 1
  temp 100
  pH 7 charge
  -water 1
EQUILIBRIUM_PHASES 1
  Gypsum 0 1
  Anhydrite 0 1
SELECTED_OUTPUT
  -file q2_sel.txt
  -reset false
USER_PUNCH
  -headings Ca+2 CaSO4 CaHSO4+ CaOH+
  10 PUNCH MOL("Ca+2"), MOL("CaSO4"), MOL("CaHSO4+"), MOL("CaOH+")
END
