SOLUTION 1
    temp 25
    pH 7 charge
    units mmol/kgw
    C(4) 10
    Cl 10
SURFACE 1
    Hfo_w 1e-3 600 1
    -equilibrate with solution 1
END
